Examples/InverterModels/PVSystem2/InvControl2/MonitoredVoltage/Mon_voltage_MAX_Mix_avg_VVDRC_sec10_VLN_Node.Txt

LINE-GROUND and LINE-LINE VOLTAGES BY BUS & NODE

Bus  Node    VLN (kV)   Angle      pu     Base kV    Node-Node   VLL (kV)  Angle      pu

A .. 1       8.3048 /_    8.2    1.0423    13.800        1-2     14.387 /_   38.2    1.0425
   - 2       8.3116 /_ -111.8    1.0432    13.800        2-3     14.389 /_  -81.7    1.0427
   - 3       8.3065 /_  128.3    1.0426    13.800        3-1     14.392 /_  158.2    1.0429
B .. 1       8.3748 /_   10.9    1.0511    13.800        1-2     14.464 /_   40.6    1.0481
   - 2       8.3095 /_ -109.3    1.0429    13.800        2-3     14.353 /_  -79.2    1.0401
   - 3       8.2877 /_  130.9    1.0402    13.800        3-1     14.436 /_  161.1    1.0461
C .. 1      0.29217 /_   10.9    1.0543     0.480        1-2    0.50462 /_   40.7    1.0513
   - 2      0.28991 /_ -109.3    1.0461     0.480        2-3    0.50077 /_  -79.2    1.0433
   - 3      0.28915 /_  131.0    1.0434     0.480        3-1    0.50364 /_  161.1    1.0492
